LAMMPS (29 Aug 2024 - Update 1)
# LAMMPS Input Script: Gradually lower velocity for atoms closer to the center

# --- Initialization ---
units lj          # Use Lennard-Jones units
atom_style ellipsoid
dimension 3       # 3D simulation
boundary f f p    # Set boundary conditions: fixed (non-periodic) in x and y, periodic in z (standard for 2D)

# --- Define the box for the simulation ---
variable box_size equal 200
variable half_box equal 200/2
region box block 0 200 0 200 -0.5 0.5 units box
create_box 1 box                     # Create the simulation box with 1 atom type
Created orthogonal box = (0 0 -0.5) to (200 200 0.5)
create_atoms 1 random 100 12345 NULL overlap 3.9 maxtry 50
Created 100 atoms

# --- Define the variables for lj/expand ---
variable	epsilon equal 200.0	# energy (strength of attraction between particles)
variable	sigma equal 1.0		# distance where particles bond (potential energy is 0)
variable	delta equal 0.0		# radius difference between particles (for lj/expand)
variable	cutoff equal 2.0	# cutoff distance (particles greater than this have the interaction ignored)

# Set ellipsoid as a sphere
set type 1 shape 0.5 0.5 0.5
Setting atom values ...
  100 settings made for shape
set atom 1 mass 1.0                           # Set mass of atom type 1
Setting atom values ...
  1 settings made for mass

# --- Other variables ---
variable center_x equal 100
variable center_y equal 100
variable vel_scale equal 10              # Scaling factor for initial velocity magnitude (adjust if needed)
variable dist atom sqrt((x-100)^2+(y-100)^2)

# --- Interactions ---
pair_style lj/expand 2.5
pair_coeff 1 1 200 1 0 2

# --- Initial Velocities --
variable vx_init atom v_vel_scale*(100-x)
variable vy_init atom v_vel_scale*(100-y)
# Apply the calculated velocities to all atoms, initializing at zero total linear momentum
velocity all set v_vx_init v_vy_init 0.0 sum yes

# --- Integration ---
fix 1 all nve
fix 2 all langevin 5.0 0.1 0.1 48279

# --- Simulation Settings ---
timestep 0.0001 # Timestep for integration (in lj time units) - Keep it small for stability
thermo 100     # Output thermodynamic info every 100 steps
thermo_style custom step temp pe ke etotal press vol atoms # Added 'atoms' to check count

# --- Output ---
# Dump atom positions and velocities every 100 steps to log.lammpstrj file
dump 1 all custom 100 central_pair_interaction.in.lammpstrj id type x y z vx vy vz fx fy fz v_dist

# --- Run Simulation ---
run 25000
Generated 0 of 0 mixed pair_coeff terms from geometric mixing rule
Step          Temp          PotEng         KinEng         TotEng         Press          Volume        Atoms
0   219774.12     -0.86132812     326364.56      326363.7       547.9367       40000                100
Averages over the last 126 of 251 rows, steps 12500 to 25000:
Temp PotEng KinEng TotEng Press Volume Atoms
1.57072 -1043.77 2.33252 -1041.44 3.58518 40000 100
Loop time of 1.73115 on 4 procs for 25000 steps with 100 atoms
