LAMMPS (29 Aug 2024 - Update 1)
# LAMMPS Input Script: Gradually lower velocity for atoms closer to the center

# --- Initialization ---
units lj          # Use Lennard-Jones units
atom_style ellipsoid
dimension 3       # 3D simulation
boundary f f p    # Set boundary conditions: fixed (non-periodic) in x and y, periodic in z (standard for 2D)

# --- System Definition ---
variable box_size equal 200
variable half_box equal 200/2
region box block 0 200 0 200 -0.5 0.5 units box
create_box 1 box                     # Create the simulation box with 1 atom type
Created orthogonal box = (0 0 -0.5) to (200 200 0.5)

create_atoms 1 random 100 12345 NULL overlap 3.9 maxtry 50
Created 100 atoms

# --- Define the circular slowing region and related variables ---
variable center_x equal 100
variable center_y equal 100
variable inner_radius equal 1.0   # Radius where maximum damping starts
variable outer_radius equal 50.0   # Radius where damping ends (beyond this, no damping)

# Group for atoms within the outer_radius of the damping region
region damping_region sphere 100 100 0.0 50 units box
group damp_group region damping_region
21 atoms in group damp_group

# Set ellipsoid shape
# This sets the semi-axes lengths for a sphere
set type 1 shape 0.5 0.5 0.5
Setting atom values ...
  100 settings made for shape

set atom 1 mass 1.0                           # Set mass of atom type 1
Setting atom values ...
  1 settings made for mass

# --- Variables for initial velocities ---
variable vel_scale equal 10              # Scaling factor for initial velocity magnitude (adjust if needed)

# --- Interactions ---
pair_style lj/cut 2.5
pair_coeff 1 1 1.0 1.0 2.5

# --- Initial Velocities --
variable vx_init atom v_vel_scale*(100-x)
variable vy_init atom v_vel_scale*(100-y)
# Apply the calculated velocities to all atoms, initializing at zero total linear momentum
velocity all set v_vx_init v_vy_init 0.0 sum yes
# velocity damp_group set 0.0 0.0 0.0 sum no

variable min_x equal 100-50
variable max_x equal 100+50
variable min_y equal 100-50
variable max_y equal 100-50

velocity damp_group ramp vx 1 0 x 50 150 sum yes
velocity damp_group ramp vy 1 0 y 50 50 sum yes

#ramp args = vdim vlo vhi dim clo chi
#  vdim = vx or vy or vz
#  vlo,vhi = lower and upper velocity value (velocity units)
#  dim = x or y or z
#  clo,chi = lower and upper coordinate bound (distance units)

# --- Velocity Damping based on distance ---
# Calculate the distance of each atom from the center of the slowing region
variable dist atom sqrt((x-100)^2+(y-100)^2)

# Calculate a damping coefficient (gamma) that increases as distance decreases
# - Be 0 when dist >= outer_radius
# - Be 1 when dist <= inner_radius
# - Linearly interpolate between 0 and 1 for inner_radius < dist < outer_radius
variable damping_coeff atom ramp(v_dist,1,50,1.0,0.0)

# We want damping_coeff to be 0 at outer_radius, and max_damping at inner_radius
# max_damping * (outer_radius - dist) / (outer_radius - inner_radius)
variable max_damping equal 1.0 # Adjust this value to control the maximum damping strength

variable gamma_val equal 0.1*step

# Apply viscous damping using fix viscous
# The 'gamma' (damping coefficient) is applied to each component of velocity.
# A higher gamma value means stronger damping.
# We apply it to 'damp_group' which includes all atoms within outer_radius

# --- Integration ---
fix 1 all nve
fix 2 all langevin 5.0 0.1 0.1 48279

# --- Simulation Settings ---
timestep 0.00001 # Timestep for integration (in lj time units) - Keep it small for stability
thermo 100     # Output thermodynamic info every 100 steps
thermo_style custom step temp pe ke etotal press vol atoms # Added 'atoms' to check count

# --- Output ---
# Dump atom positions and velocities every 100 steps to log.lammpstrj file
dump 1 all custom 100 central_slowed.in.lammpstrj id type x y vx vy fx fy v_dist

# --- Run Simulation ---
run 100000
Generated 0 of 0 mixed pair_coeff terms from geometric mixing rule
Step          Temp          PotEng         KinEng         TotEng         Press          Volume        Atoms
0   219779.52     -0.061523437    326372.58      326372.52      543.974        40000                100
Averages over the last 501 of 1001 rows, steps 50000 to 100000:
Temp PotEng KinEng TotEng Press Volume Atoms
3.71783 -2.7342 5.52098 2.78678 0.0271963 40000 100
Loop time of 4.67613 on 4 procs for 100000 steps with 100 atoms
